
 OpenBabel08281716383D

 24 25  0  0  0  0  0  0  0  0999 V2000
    1.3173   -1.0661   -0.0255 N   0  0  0  0  0  0  0  0  0  0  0  0
    2.2233   -2.1978   -0.0554 C   0  0  0  0  0  0  0  0  0  0  0  0
    1.8660    0.2320   -0.0196 C   0  0  0  0  0  0  0  0  0  0  0  0
    3.0864    0.4146   -0.0406 O   0  0  0  0  0  0  0  0  0  0  0  0
    0.9679    1.3017    0.0101 N   0  0  0  0  0  0  0  0  0  0  0  0
    1.4492    2.6714    0.0205 C   0  0  0  0  0  0  0  0  0  0  0  0
   -0.3825    1.0484    0.0251 C   0  0  0  0  0  0  0  0  0  0  0  0
   -1.3761    1.9798    0.0523 N   0  0  0  0  0  0  0  0  0  0  0  0
   -2.4889    1.2726    0.0556 C   0  0  0  0  0  0  0  0  0  0  0  0
   -2.2323   -0.0728    0.0314 N   0  0  0  0  0  0  0  0  0  0  0  0
   -3.2145   -1.1270    0.0275 C   0  0  0  0  0  0  0  0  0  0  0  0
   -0.8754   -0.2207    0.0116 C   0  0  0  0  0  0  0  0  0  0  0  0
   -0.0481   -1.3743   -0.0179 C   0  0  0  0  0  0  0  0  0  0  0  0
   -0.4941   -2.5184   -0.0360 O   0  0  0  0  0  0  0  0  0  0  0  0
    3.2747   -1.9030   -0.0227 H   0  0  0  0  0  0  0  0  0  0  0  0
    2.0113   -2.8468    0.8008 H   0  0  0  0  0  0  0  0  0  0  0  0
    2.0429   -2.7693   -0.9719 H   0  0  0  0  0  0  0  0  0  0  0  0
    2.5411    2.7209    0.0144 H   0  0  0  0  0  0  0  0  0  0  0  0
    1.0712    3.1892   -0.8668 H   0  0  0  0  0  0  0  0  0  0  0  0
    1.0823    3.1725    0.9219 H   0  0  0  0  0  0  0  0  0  0  0  0
   -3.4919    1.6803    0.0747 H   0  0  0  0  0  0  0  0  0  0  0  0
   -3.1013   -1.7040   -0.8936 H   0  0  0  0  0  0  0  0  0  0  0  0
   -3.0510   -1.7591    0.9039 H   0  0  0  0  0  0  0  0  0  0  0  0
   -4.2163   -0.6920    0.0696 H   0  0  0  0  0  0  0  0  0  0  0  0
  1  2  1  0  0  0  0
  1  3  1  0  0  0  0
  1 13  1  0  0  0  0
  2 15  1  0  0  0  0
  2 16  1  0  0  0  0
  2 17  1  0  0  0  0
  3  4  2  0  0  0  0
  3  5  1  0  0  0  0
  5  6  1  0  0  0  0
  5  7  1  0  0  0  0
  6 18  1  0  0  0  0
  6 19  1  0  0  0  0
  6 20  1  0  0  0  0
  7  8  1  0  0  0  0
  7 12  2  0  0  0  0
  8  9  2  0  0  0  0
  9 10  1  0  0  0  0
  9 21  1  0  0  0  0
 10 11  1  0  0  0  0
 10 12  1  0  0  0  0
 11 22  1  0  0  0  0
 11 23  1  0  0  0  0
 11 24  1  0  0  0  0
 12 13  1  0  0  0  0
 13 14  2  0  0  0  0
M  END

>  <Energy>
-122.351

>  <Enthalpy (eV)>
-122.350

$$$$
